<?xml version="1.0" encoding="UTF-8"?>

<!-- generated on 2025-07-15 20:26:48 by Eclipse SUMO netedit Version 1.23.1
-->

<additional xmlns:xsi="http://www.w3.org/2001/XMLSchema-instance" xsi:noNamespaceSchemaLocation="http://sumo.dlr.de/xsd/additional_file.xsd">
    <!-- Shapes -->
    <poly id="po_0" color="black" fill="0" layer="0.00" shape="41.193742,47.674183 41.193742,7.361661 105.729932,7.361661 105.368384,47.854957 40.832195,47.674183"/>
    <poly id="po_1" color="21,215,26" fill="0" layer="0.00" shape="19.319534,101.422615 20.970473,6.493604 -139.170641,6.218447 -138.620328,99.771676 18.769221,101.147458"/>
    <poly id="po_10" color="black" fill="0" layer="0.00" shape="-131.557075,-13.927411 -131.274114,-35.715354 -82.392721,-35.220174 -82.109761,-13.149270 -131.840035,-13.785930"/>
    <poly id="po_12" color="black" fill="0" layer="0.00" shape="46.929225,-12.083708 47.121985,-34.829372 59.073096,-34.443852 58.494817,-11.698188 46.736465,-11.890948"/>
    <poly id="po_13" color="black" fill="0" layer="0.00" shape="67.747291,-11.890948 67.554531,-44.274606 81.818761,-43.696326 81.626001,-11.698188 67.554531,-12.083708"/>
    <poly id="po_14" color="black" fill="0" layer="0.00" shape="97.479829,-12.158552 97.479829,-35.640209 115.353926,-35.640209 115.003454,-11.983316 96.954121,-12.333788"/>
    <poly id="po_15" color="black" fill="0" layer="0.00" shape="129.723299,-13.209970 129.723299,-48.958164 141.288891,-48.782927 141.113655,-12.859497 129.022354,-13.209970"/>
    <poly id="po_2" color="58,254,40" fill="0" layer="0.00" shape="37.834792,-23.422870 40.017074,-21.944550 40.187077,-24.770717 37.854316,-23.424893"/>
    <poly id="po_3" color="58,254,40" fill="0" layer="0.00" shape="37.960000,-30.770000 40.360000,-29.460000 40.270000,-32.080000 37.870000,-30.640000"/>
    <poly id="po_4" color="58,254,40" fill="0" layer="0.00" shape="38.090000,-37.760000 40.490000,-36.060000 40.410000,-38.990000 37.960000,-37.720000"/>
    <poly id="po_5" color="58,254,40" fill="0" layer="0.00" shape="38.132809,-46.024728 40.536887,-44.014045 40.580597,-47.379754 38.176520,-46.155860"/>
    <poly id="po_6" color="black" fill="0" layer="0.00" shape="-16.544099,-12.497005 -15.957237,-46.973484 -35.131253,-47.098805 -35.256573,-11.883783 -16.709159,-11.883783"/>
    <poly id="po_7" color="black" fill="0" layer="0.00" shape="20.025944,-11.414707 20.481655,-33.174879 -0.025313,-33.060951 -0.367096,-11.300780 19.881521,-11.356422"/>
    <poly id="po_8" color="black" fill="0" layer="0.00" shape="-71.930684,-12.664917 -71.486659,-57.955501 -60.608039,-57.733488 -62.162127,-12.220892 -72.374710,-12.220892"/>
</additional>
