<?xml version="1.0" encoding="UTF-8"?>

<!-- generated on 2025-07-31 07:36:29 by Eclipse SUMO netedit Version 1.23.1
-->

<additional xmlns:xsi="http://www.w3.org/2001/XMLSchema-instance" xsi:noNamespaceSchemaLocation="http://sumo.dlr.de/xsd/additional_file.xsd">
    <!-- Shapes -->
    <poly id="po_0" color="red" fill="0" layer="0.00" shape="-404.807736,8.989976 -145.536070,10.078210 -144.991953,-17.671748 -405.895970,-18.215865 -405.623912,8.717918"/>
</additional>
