<?xml version="1.0" encoding="UTF-8"?>

<!-- generated on 2025-07-09 04:52:10 by Eclipse SUMO netedit Version 1.23.1
<neteditConfiguration xmlns:xsi="http://www.w3.org/2001/XMLSchema-instance" xsi:noNamespaceSchemaLocation="http://sumo.dlr.de/xsd/neteditConfiguration.xsd">

    <input>
        <sumocfg-file value="C:\Users\Asus\Desktop\map\map.sumocfg"/>
        <additional-files value="C:\Users\Asus\Desktop\intersection\intersectioncfg.add.xml"/>
        <route-files value="C:\Users\Asus\Desktop\intersection\test.rou.xml"/>
        <sumo-net-file value="C:\Users\Asus\Desktop\map\map.net.xml"/>
    </input>

    <processing>
        <offset.disable-normalization value="true"/>
    </processing>

    <junctions>
        <no-turnarounds value="true"/>
    </junctions>

    <netedit>
        <new-network value="false"/>
    </netedit>

</neteditConfiguration>
-->

<tlLogics version="1.20" xmlns:xsi="http://www.w3.org/2001/XMLSchema-instance" xsi:noNamespaceSchemaLocation="http://sumo.dlr.de/xsd/tllogic_file.xsd">
</tlLogics>
