<?xml version="1.0" encoding="UTF-8"?>

<!-- generated on 2025-08-28 04:44:01 by Eclipse SUMO netedit Version 1.23.1
<neteditConfiguration xmlns:xsi="http://www.w3.org/2001/XMLSchema-instance" xsi:noNamespaceSchemaLocation="http://sumo.dlr.de/xsd/neteditConfiguration.xsd">

    <input>
        <sumo-net-file value="C:\Users\Asus\Desktop\map\map.net.xml"/>
    </input>

    <output>
        <output-file value="C:\Users\Asus\Desktop\map\map.net.xml"/>
    </output>

    <processing>
        <geometry.min-radius.fix.railways value="false"/>
        <geometry.avoid-overlap value="false"/>
        <geometry.max-grade.fix value="false"/>
        <offset.disable-normalization value="true"/>
        <lefthand value="0"/>
    </processing>

    <junctions>
        <no-turnarounds value="true"/>
        <junctions.corner-detail value="5"/>
        <junctions.limit-turn-speed value="5.50"/>
        <rectangular-lane-cut value="0"/>
    </junctions>

    <pedestrian>
        <walkingareas value="0"/>
    </pedestrian>

</neteditConfiguration>
-->

<net version="1.20" junctionCornerDetail="5" limitTurnSpeed="5.50" avoidOverlap="0" xmlns:xsi="http://www.w3.org/2001/XMLSchema-instance" xsi:noNamespaceSchemaLocation="http://sumo.dlr.de/xsd/net_file.xsd">

    <location netOffset="0.00,0.00" convBoundary="-399.45,-100.00,289.63,156.74" origBoundary="-10000000000.00,-10000000000.00,10000000000.00,10000000000.00" projParameter="!"/>

    <edge id=":high1_0" function="internal">
        <lane id=":high1_0_0" index="0" speed="8.96" length="18.11" shape="-403.70,6.44 -403.02,1.52 -400.92,-1.99 -397.42,-4.10 -392.50,-4.80"/>
        <lane id=":high1_0_1" index="1" speed="7.66" length="12.94" shape="-400.50,6.43 -400.01,2.92 -398.52,0.41 -396.01,-1.10 -392.50,-1.60"/>
    </edge>
    <edge id=":high1_2" function="internal">
        <lane id=":high1_2_0" index="0" speed="3.90" length="2.59" shape="-392.50,4.80 -393.21,4.90 -393.71,5.20 -394.01,5.70 -394.10,6.41"/>
        <lane id=":high1_2_1" index="1" speed="6.08" length="7.76" shape="-392.50,1.60 -394.61,1.90 -396.11,2.81 -397.01,4.31 -397.30,6.42"/>
    </edge>
    <edge id=":high2_0" function="internal">
        <lane id=":high2_0_0" index="0" speed="11.51" length="30.32" shape="-388.15,159.21 -394.72,157.80 -399.42,153.61 -402.26,146.65 -403.23,136.91"/>
        <lane id=":high2_0_1" index="1" speed="10.54" length="25.24" shape="-388.13,156.01 -393.31,154.80 -397.02,151.21 -399.26,145.24 -400.03,136.90"/>
    </edge>
    <edge id=":high2_2" function="internal">
        <lane id=":high2_2_0" index="0" speed="6.51" length="8.97" shape="-393.63,136.88 -393.27,139.31 -392.23,141.05 -390.49,142.10 -388.06,142.46"/>
        <lane id=":high2_2_1" index="1" speed="7.33" length="11.65" shape="-393.63,136.88 -393.27,140.71 -392.23,143.45 -390.50,145.10 -388.08,145.66"/>
        <lane id=":high2_2_2" index="2" speed="8.67" length="16.74" shape="-396.83,136.89 -396.27,142.11 -394.63,145.84 -391.90,148.09 -388.09,148.85"/>
        <lane id=":high2_2_3" index="3" speed="9.32" length="19.51" shape="-396.83,136.89 -396.27,143.51 -394.62,148.24 -391.91,151.09 -388.11,152.05"/>
    </edge>
    <edge id=":high3_0" function="internal">
        <lane id=":high3_0_0" index="0" speed="13.89" length="20.77" shape="38.62,167.34 17.85,167.25"/>
        <lane id=":high3_0_1" index="1" speed="13.89" length="20.77" shape="38.64,164.14 17.86,164.05"/>
        <lane id=":high3_0_2" index="2" speed="13.89" length="20.77" shape="38.65,160.94 17.88,160.85"/>
        <lane id=":high3_0_3" index="3" speed="13.89" length="20.77" shape="38.67,157.74 17.89,157.65"/>
    </edge>
    <edge id=":high3_4" function="internal">
        <lane id=":high3_4_0" index="0" speed="10.43" length="4.28" shape="38.67,157.74 34.49,156.80"/>
    </edge>
    <edge id=":high3_15" function="internal">
        <lane id=":high3_15_0" index="0" speed="10.43" length="20.70" shape="34.49,156.80 33.39,156.55 29.65,153.03 27.45,147.19 26.80,139.02"/>
    </edge>
    <edge id=":high3_5" function="internal">
        <lane id=":high3_5_0" index="0" speed="6.49" length="9.03" shape="33.20,139.10 33.52,141.56 34.55,143.32 36.29,144.38 38.74,144.74"/>
        <lane id=":high3_5_1" index="1" speed="7.31" length="11.74" shape="33.20,139.10 33.50,142.96 34.53,145.72 36.27,147.38 38.72,147.94"/>
    </edge>
    <edge id=":high3_7" function="internal">
        <lane id=":high3_7_0" index="0" speed="11.02" length="27.70" shape="30.00,139.06 29.14,148.61 26.83,155.43 23.08,159.51 17.88,160.85"/>
        <lane id=":high3_7_1" index="1" speed="10.47" length="24.91" shape="30.00,139.06 29.16,147.21 26.86,153.03 23.10,156.51 17.89,157.65"/>
    </edge>
    <edge id=":high3_9" function="internal">
        <lane id=":high3_9_0" index="0" speed="6.54" length="9.10" shape="17.94,144.63 20.39,144.29 22.15,143.23 23.22,141.47 23.60,138.98"/>
    </edge>
    <edge id=":high3_10" function="internal">
        <lane id=":high3_10_0" index="0" speed="13.89" length="20.80" shape="17.94,144.63 38.74,144.74"/>
    </edge>
    <edge id=":high3_11" function="internal">
        <lane id=":high3_11_0" index="0" speed="8.03" length="4.05" shape="17.93,147.83 21.77,147.30 21.91,147.21"/>
    </edge>
    <edge id=":high3_12" function="internal">
        <lane id=":high3_12_0" index="0" speed="13.89" length="20.79" shape="17.93,147.83 38.72,147.94"/>
        <lane id=":high3_12_1" index="1" speed="13.89" length="20.79" shape="17.92,151.03 38.71,151.14"/>
        <lane id=":high3_12_2" index="2" speed="13.89" length="20.79" shape="17.90,154.23 38.69,154.34"/>
    </edge>
    <edge id=":high3_16" function="internal">
        <lane id=":high3_16_0" index="0" speed="8.03" length="10.19" shape="21.91,147.21 24.53,145.65 26.20,142.89 26.80,139.02"/>
    </edge>
    <edge id=":high4_0" function="internal">
        <lane id=":high4_0_0" index="0" speed="12.37" length="35.58" shape="197.15,139.89 196.23,152.18 193.38,160.94 188.59,166.19 181.86,167.92"/>
        <lane id=":high4_0_1" index="1" speed="11.48" length="30.50" shape="193.95,139.90 193.23,150.78 190.97,158.54 187.19,163.18 181.88,164.72"/>
        <lane id=":high4_0_2" index="2" speed="10.95" length="27.63" shape="193.95,139.90 193.22,149.38 190.97,156.14 187.19,160.18 181.89,161.52"/>
        <lane id=":high4_0_3" index="3" speed="10.40" length="24.81" shape="193.95,139.90 193.22,147.98 190.97,153.74 187.20,157.18 181.90,158.32"/>
    </edge>
    <edge id=":high4_4" function="internal">
        <lane id=":high4_4_0" index="0" speed="6.49" length="9.03" shape="181.96,145.51 184.41,145.17 186.16,144.13 187.21,142.38 187.55,139.93"/>
        <lane id=":high4_4_1" index="1" speed="7.98" length="14.22" shape="181.94,148.71 185.81,148.18 188.56,146.53 190.21,143.78 190.75,139.91"/>
    </edge>
    <edge id=":mergein1_0" function="internal">
        <lane id=":mergein1_0_0" index="0" speed="13.89" length="3.62" shape="-293.94,-8.80 -292.89,-8.67 -292.19,-8.39 -291.49,-8.11 -290.44,-7.98"/>
    </edge>
    <edge id=":mergein1_1" function="internal">
        <lane id=":mergein1_1_0" index="0" speed="13.89" length="3.50" shape="-293.94,-4.78 -290.44,-4.78"/>
        <lane id=":mergein1_1_1" index="1" speed="13.89" length="3.50" shape="-293.94,-1.58 -290.44,-1.58"/>
    </edge>
    <edge id=":mergein2_0" function="internal">
        <lane id=":mergein2_0_0" index="0" speed="13.89" length="8.00" shape="-195.58,-4.76 -187.58,-4.76"/>
        <lane id=":mergein2_0_1" index="1" speed="13.89" length="8.00" shape="-195.58,-1.56 -187.58,-1.56"/>
    </edge>
    <edge id=":mergeout_0" function="internal">
        <lane id=":mergeout_0_0" index="0" speed="13.89" length="19.50" shape="219.06,-4.61 225.43,-5.08 230.35,-6.22 234.35,-7.61 237.97,-8.87"/>
    </edge>
    <edge id=":mergeout_1" function="internal">
        <lane id=":mergeout_1_0" index="0" speed="13.89" length="19.51" shape="219.06,-4.61 238.57,-4.62"/>
        <lane id=":mergeout_1_1" index="1" speed="13.89" length="19.51" shape="219.06,-1.41 238.57,-1.42"/>
    </edge>
    <edge id=":sigint_0" function="internal">
        <lane id=":sigint_0_0" index="0" speed="6.53" length="9.07" shape="187.10,10.57 186.74,8.10 185.69,6.34 183.94,5.28 181.49,4.93"/>
    </edge>
    <edge id=":sigint_1" function="internal">
        <lane id=":sigint_1_0" index="0" speed="13.89" length="20.89" shape="187.10,10.57 187.28,-10.35"/>
        <lane id=":sigint_1_1" index="1" speed="13.89" length="20.89" shape="190.30,10.56 190.48,-10.31"/>
    </edge>
    <edge id=":sigint_3" function="internal">
        <lane id=":sigint_3_0" index="0" speed="9.27" length="5.18" shape="190.30,10.56 191.03,5.43"/>
    </edge>
    <edge id=":sigint_16" function="internal">
        <lane id=":sigint_16_0" index="0" speed="9.27" length="14.28" shape="191.03,5.43 191.05,5.32 193.32,1.57 197.11,-0.67 202.43,-1.42"/>
    </edge>
    <edge id=":sigint_4" function="internal">
        <lane id=":sigint_4_0" index="0" speed="6.54" length="9.15" shape="202.43,4.93 199.92,5.28 198.13,6.33 197.05,8.08 196.70,10.54"/>
    </edge>
    <edge id=":sigint_5" function="internal">
        <lane id=":sigint_5_0" index="0" speed="13.89" length="20.94" shape="202.43,4.93 181.49,4.93"/>
        <lane id=":sigint_5_1" index="1" speed="13.89" length="20.94" shape="202.43,1.73 181.49,1.73"/>
    </edge>
    <edge id=":sigint_7" function="internal">
        <lane id=":sigint_7_0" index="0" speed="9.23" length="4.68" shape="202.43,1.73 197.80,1.07"/>
    </edge>
    <edge id=":sigint_17" function="internal">
        <lane id=":sigint_17_0" index="0" speed="9.23" length="14.71" shape="197.80,1.07 197.15,0.98 193.40,-1.28 191.18,-5.04 190.48,-10.31"/>
    </edge>
    <edge id=":sigint_8" function="internal">
        <lane id=":sigint_8_0" index="0" speed="6.48" length="9.03" shape="196.88,-10.24 197.20,-7.78 198.24,-6.02 199.98,-4.97 202.44,-4.62"/>
    </edge>
    <edge id=":sigint_9" function="internal">
        <lane id=":sigint_9_0" index="0" speed="13.89" length="20.80" shape="196.88,-10.24 196.70,10.54"/>
        <lane id=":sigint_9_1" index="1" speed="13.89" length="20.80" shape="193.68,-10.27 193.50,10.55"/>
    </edge>
    <edge id=":sigint_11" function="internal">
        <lane id=":sigint_11_0" index="0" speed="9.32" length="4.92" shape="193.68,-10.27 192.93,-5.42"/>
    </edge>
    <edge id=":sigint_18" function="internal">
        <lane id=":sigint_18_0" index="0" speed="9.32" length="14.55" shape="192.93,-5.42 192.87,-5.02 190.57,-1.27 186.77,0.98 181.49,1.73"/>
    </edge>
    <edge id=":sigint_12" function="internal">
        <lane id=":sigint_12_0" index="0" speed="6.60" length="9.25" shape="181.49,-4.63 184.00,-4.99 185.80,-6.06 186.90,-7.84 187.28,-10.35"/>
    </edge>
    <edge id=":sigint_13" function="internal">
        <lane id=":sigint_13_0" index="0" speed="13.89" length="20.94" shape="181.49,-4.63 202.44,-4.62"/>
        <lane id=":sigint_13_1" index="1" speed="13.89" length="20.94" shape="181.49,-1.43 202.43,-1.42"/>
    </edge>
    <edge id=":sigint_15" function="internal">
        <lane id=":sigint_15_0" index="0" speed="9.27" length="4.73" shape="181.49,-1.43 186.17,-0.76"/>
    </edge>
    <edge id=":sigint_19" function="internal">
        <lane id=":sigint_19_0" index="0" speed="9.27" length="14.60" shape="186.17,-0.76 186.73,-0.68 190.48,1.57 192.74,5.31 193.50,10.55"/>
    </edge>
    <edge id=":unint_0" function="internal">
        <lane id=":unint_0_0" index="0" speed="6.57" length="9.15" shape="40.41,4.89 37.96,5.25 36.20,6.32 35.13,8.11 34.75,10.62"/>
    </edge>
    <edge id=":unint_1" function="internal">
        <lane id=":unint_1_0" index="0" speed="13.89" length="20.81" shape="40.41,4.89 19.60,4.88"/>
        <lane id=":unint_1_1" index="1" speed="13.89" length="20.81" shape="40.41,1.69 19.60,1.68"/>
    </edge>
    <edge id=":unint_3" function="internal">
        <lane id=":unint_3_0" index="0" speed="9.26" length="19.37" shape="40.41,1.69 35.15,0.94 31.40,-1.31 29.15,-5.07 28.40,-10.32"/>
    </edge>
    <edge id=":unint_4" function="internal">
        <lane id=":unint_4_0" index="0" speed="6.51" length="9.04" shape="34.80,-10.32 35.15,-7.87 36.20,-6.12 37.96,-5.07 40.41,-4.72"/>
    </edge>
    <edge id=":unint_5" function="internal">
        <lane id=":unint_5_0" index="0" speed="13.89" length="20.92" shape="34.80,-10.32 34.75,10.62"/>
        <lane id=":unint_5_1" index="1" speed="13.89" length="20.92" shape="31.60,-10.32 31.55,10.58"/>
    </edge>
    <edge id=":unint_7" function="internal">
        <lane id=":unint_7_0" index="0" speed="9.26" length="19.35" shape="31.60,-10.32 30.85,-5.07 28.60,-1.32 24.85,0.93 19.60,1.68"/>
    </edge>
    <edge id=":unint_8" function="internal">
        <lane id=":unint_8_0" index="0" speed="6.51" length="9.03" shape="19.60,-4.72 22.05,-5.07 23.80,-6.12 24.85,-7.87 25.20,-10.32"/>
    </edge>
    <edge id=":unint_9" function="internal">
        <lane id=":unint_9_0" index="0" speed="13.89" length="20.81" shape="19.60,-4.72 40.41,-4.72"/>
        <lane id=":unint_9_1" index="1" speed="13.89" length="20.81" shape="19.60,-1.52 40.41,-1.52"/>
    </edge>
    <edge id=":unint_11" function="internal">
        <lane id=":unint_11_0" index="0" speed="9.24" length="19.45" shape="19.60,-1.52 24.88,-0.76 28.64,1.50 30.86,5.28 31.55,10.58"/>
    </edge>
    <edge id=":unint_12" function="internal">
        <lane id=":unint_12_0" index="0" speed="6.48" length="9.04" shape="25.15,10.50 24.83,8.04 23.80,6.28 22.05,5.23 19.60,4.88"/>
    </edge>
    <edge id=":unint_13" function="internal">
        <lane id=":unint_13_0" index="0" speed="13.89" length="20.84" shape="25.15,10.50 25.20,-10.32"/>
        <lane id=":unint_13_1" index="1" speed="13.89" length="20.84" shape="28.35,10.54 28.40,-10.32"/>
    </edge>
    <edge id=":unint_15" function="internal">
        <lane id=":unint_15_0" index="0" speed="9.31" length="19.39" shape="28.35,10.54 29.16,5.26 31.44,1.49 35.19,-0.77 40.41,-1.52"/>
    </edge>

    <edge id="-e14" from="high4" to="high3" priority="-1" shape="187.69,156.74 27.01,156.09">
        <lane id="-e14_0" index="0" speed="13.89" length="143.24" shape="181.86,167.92 38.62,167.34"/>
        <lane id="-e14_1" index="1" speed="13.89" length="143.24" shape="181.88,164.72 38.64,164.14"/>
        <lane id="-e14_2" index="2" speed="13.89" length="143.24" shape="181.89,161.52 38.65,160.94"/>
        <lane id="-e14_3" index="3" speed="13.89" length="143.24" shape="181.90,158.32 38.67,157.74"/>
    </edge>
    <edge id="-e15" from="high3" to="high2" priority="-1" shape="27.01,156.09 -399.28,154.37">
        <lane id="-e15_0" index="0" speed="13.89" length="406.03" shape="17.85,167.25 -388.18,165.61"/>
        <lane id="-e15_1" index="1" speed="13.89" length="406.03" shape="17.86,164.05 -388.17,162.41"/>
        <lane id="-e15_2" index="2" speed="13.89" length="406.03" shape="17.88,160.85 -388.15,159.21"/>
        <lane id="-e15_3" index="3" speed="13.89" length="406.03" shape="17.89,157.65 -388.13,156.01"/>
    </edge>
    <edge id="-e16" from="high1" to="high2" priority="-1" shape="-398.91,4.75 -398.37,153.60">
        <lane id="-e16_0" index="0" speed="13.89" length="130.47" shape="-394.10,6.41 -393.63,136.88"/>
        <lane id="-e16_1" index="1" speed="13.89" length="130.47" shape="-397.30,6.42 -396.83,136.89"/>
    </edge>
    <edge id="-e5" from="unint" to="sigint" priority="-1" shape="36.57,0.08 185.33,0.17">
        <lane id="-e5_0" index="0" speed="13.89" length="141.08" shape="40.41,-4.72 181.49,-4.63"/>
        <lane id="-e5_1" index="1" speed="13.89" length="141.08" shape="40.41,-1.52 181.49,-1.43"/>
    </edge>
    <edge id="-e6" from="corner1" to="unint" priority="-1" shape="30.00,-100.00 30.00,-6.78">
        <lane id="-e6_0" index="0" speed="13.89" length="89.68" shape="34.80,-100.00 34.80,-10.32"/>
        <lane id="-e6_1" index="1" speed="13.89" length="89.68" shape="31.60,-100.00 31.60,-10.32"/>
    </edge>
    <edge id="-e7" from="unint" to="high3" priority="-1" shape="30.00,6.82 28.35,142.96">
        <lane id="-e7_0" index="0" speed="13.89" length="128.49" shape="34.75,10.62 33.20,139.10"/>
        <lane id="-e7_1" index="1" speed="13.89" length="128.49" shape="31.55,10.58 30.00,139.06"/>
    </edge>
    <edge id="-e8" from="corner2" to="sigint" priority="-1" shape="192.72,-67.20 192.04,-6.57">
        <lane id="-e8_0" index="0" speed="13.89" length="56.91" shape="197.52,-67.15 196.88,-10.24"/>
        <lane id="-e8_1" index="1" speed="13.89" length="56.91" shape="194.32,-67.18 193.68,-10.27"/>
    </edge>
    <edge id="-e9" from="sigint" to="high4" priority="-1" shape="191.89,6.73 192.36,143.43">
        <lane id="-e9_0" index="0" speed="13.89" length="129.36" shape="196.70,10.54 197.15,139.89"/>
        <lane id="-e9_1" index="1" speed="13.89" length="129.36" shape="193.50,10.55 193.95,139.90"/>
    </edge>
    <edge id="e0" from="unint" to="high1" priority="-1" shape="23.53,0.08 -398.93,0.00">
        <lane id="e0_0" index="0" speed="13.89" length="412.10" shape="19.60,4.88 -392.50,4.80"/>
        <lane id="e0_1" index="1" speed="13.89" length="412.10" shape="19.60,1.68 -392.50,1.60"/>
    </edge>
    <edge id="e1" from="high1" to="mergein1" priority="-1" shape="-398.93,0.00 -293.94,0.02">
        <lane id="e1_0" index="0" speed="13.89" length="98.56" shape="-392.50,-4.80 -293.94,-4.78"/>
        <lane id="e1_1" index="1" speed="13.89" length="98.56" shape="-392.50,-1.60 -293.94,-1.58"/>
    </edge>
    <edge id="e10" from="sigint" to="mergeout" priority="-1" shape="198.82,0.18 222.78,0.19">
        <lane id="e10_0" index="0" speed="13.89" length="16.62" shape="202.44,-4.62 219.06,-4.61"/>
        <lane id="e10_1" index="1" speed="13.89" length="16.62" shape="202.43,-1.42 219.06,-1.41"/>
    </edge>
    <edge id="e11" from="mergeout" to="corner4" priority="-1" shape="222.77,0.19 289.63,0.16">
        <lane id="e11_0" index="0" speed="13.89" length="51.06" shape="238.57,-4.62 289.63,-4.64"/>
        <lane id="e11_1" index="1" speed="13.89" length="51.06" shape="238.57,-1.42 289.63,-1.44"/>
    </edge>
    <edge id="e12" from="corner4" to="sigint" priority="-1" shape="289.63,0.16 198.56,0.13">
        <lane id="e12_0" index="0" speed="13.89" length="87.20" shape="289.63,4.96 202.43,4.93"/>
        <lane id="e12_1" index="1" speed="13.89" length="87.20" shape="289.63,1.76 202.43,1.73"/>
    </edge>
    <edge id="e13" from="mergeout" to="corner3" priority="-1" shape="223.17,-2.91 288.78,-21.93">
        <lane id="e13_0" index="0" speed="13.89" length="52.44" shape="237.97,-8.87 288.33,-23.47"/>
    </edge>
    <edge id="e14" from="high3" to="high4" priority="-1" shape="25.49,155.87 187.69,156.74">
        <lane id="e14_0" index="0" speed="13.89" length="143.22" shape="38.74,144.74 181.96,145.51"/>
        <lane id="e14_1" index="1" speed="13.89" length="143.22" shape="38.72,147.94 181.94,148.71"/>
        <lane id="e14_2" index="2" speed="13.89" length="143.22" shape="38.71,151.14 181.93,151.91"/>
        <lane id="e14_3" index="3" speed="13.89" length="143.22" shape="38.69,154.34 181.92,155.11"/>
    </edge>
    <edge id="e15" from="high2" to="high3" priority="-1" shape="-398.37,153.60 25.49,155.87">
        <lane id="e15_0" index="0" speed="13.89" length="406.01" shape="-388.06,142.46 17.94,144.63"/>
        <lane id="e15_1" index="1" speed="13.89" length="406.01" shape="-388.08,145.66 17.93,147.83"/>
        <lane id="e15_2" index="2" speed="13.89" length="406.01" shape="-388.09,148.85 17.92,151.03"/>
        <lane id="e15_3" index="3" speed="13.89" length="406.01" shape="-388.11,152.05 17.90,154.23"/>
    </edge>
    <edge id="e16" from="high2" to="high1" priority="-1" shape="-398.37,153.60 -398.91,4.75">
        <lane id="e16_0" index="0" speed="13.89" length="130.47" shape="-403.23,136.91 -403.70,6.44"/>
        <lane id="e16_1" index="1" speed="13.89" length="130.47" shape="-400.03,136.90 -400.50,6.43"/>
    </edge>
    <edge id="e2" from="J51" to="mergein1" priority="-1" shape="-369.64,-7.37 -294.55,-7.20">
        <lane id="e2_0" index="0" speed="13.89" length="75.70" shape="-369.64,-8.97 -293.94,-8.80"/>
    </edge>
    <edge id="e3" from="mergein1" to="mergein2" priority="-1" shape="-290.44,0.02 -191.58,0.04">
        <lane id="e3_0" index="0" speed="13.89" length="94.86" shape="-290.44,-7.98 -195.58,-7.96"/>
        <lane id="e3_1" index="1" speed="13.89" length="94.86" shape="-290.44,-4.78 -195.58,-4.76"/>
        <lane id="e3_2" index="2" speed="13.89" length="94.86" shape="-290.44,-1.58 -195.58,-1.56"/>
    </edge>
    <edge id="e4" from="mergein2" to="unint" priority="-1" shape="-191.58,0.04 23.53,0.08">
        <lane id="e4_0" index="0" speed="13.89" length="207.18" shape="-187.58,-4.76 19.60,-4.72"/>
        <lane id="e4_1" index="1" speed="13.89" length="207.18" shape="-187.58,-1.56 19.60,-1.52"/>
    </edge>
    <edge id="e5" from="sigint" to="unint" priority="-1" shape="185.46,0.13 36.49,0.09">
        <lane id="e5_0" index="0" speed="13.89" length="141.08" shape="181.49,4.93 40.41,4.89"/>
        <lane id="e5_1" index="1" speed="13.89" length="141.08" shape="181.49,1.73 40.41,1.69"/>
    </edge>
    <edge id="e6" from="unint" to="corner1" priority="-1" shape="30.00,-7.31 30.00,-100.00">
        <lane id="e6_0" index="0" speed="13.89" length="89.68" shape="25.20,-10.32 25.20,-100.00"/>
        <lane id="e6_1" index="1" speed="13.89" length="89.68" shape="28.40,-10.32 28.40,-100.00"/>
    </edge>
    <edge id="e7" from="high3" to="unint" priority="-1" shape="28.35,142.96 30.00,6.63">
        <lane id="e7_0" index="0" speed="13.89" length="128.49" shape="23.60,138.98 25.15,10.50"/>
        <lane id="e7_1" index="1" speed="13.89" length="128.49" shape="26.80,139.02 28.35,10.54"/>
    </edge>
    <edge id="e8" from="sigint" to="corner2" priority="-1" shape="192.04,-6.62 192.72,-67.20">
        <lane id="e8_0" index="0" speed="13.89" length="56.91" shape="187.28,-10.35 187.92,-67.25"/>
        <lane id="e8_1" index="1" speed="13.89" length="56.91" shape="190.48,-10.31 191.12,-67.22"/>
    </edge>
    <edge id="e9" from="high4" to="sigint" priority="-1" shape="192.36,143.43 191.89,6.85">
        <lane id="e9_0" index="0" speed="13.89" length="129.36" shape="187.55,139.93 187.10,10.57"/>
        <lane id="e9_1" index="1" speed="13.89" length="129.36" shape="190.75,139.91 190.30,10.56"/>
    </edge>

    <tlLogic id="clusterJ10_J11_J12_J4_#4more" type="static" programID="0" offset="0">
        <phase duration="42" state="rrrrGGGgrrrrGGGg"/>
        <phase duration="3"  state="rrrryyyyrrrryyyy"/>
        <phase duration="42" state="GGGgrrrrGGGgrrrr"/>
        <phase duration="3"  state="yyyyrrrryyyyrrrr"/>
    </tlLogic>

    <junction id="J51" type="dead_end" x="-369.64" y="-7.20" incLanes="" intLanes="" shape="-369.64,-7.37 -369.63,-10.57"/>
    <junction id="corner1" type="dead_end" x="30.00" y="-100.00" incLanes="e6_0 e6_1" intLanes="" shape="30.00,-100.00 23.60,-100.00 30.00,-100.00"/>
    <junction id="corner2" type="dead_end" x="192.72" y="-67.20" incLanes="e8_0 e8_1" intLanes="" shape="192.72,-67.20 186.32,-67.27 192.72,-67.20"/>
    <junction id="corner3" type="dead_end" x="288.78" y="-21.93" incLanes="e13_0" intLanes="" shape="287.89,-25.00 288.78,-21.93"/>
    <junction id="corner4" type="dead_end" x="289.63" y="0.16" incLanes="e11_0 e11_1" intLanes="" shape="289.63,0.16 289.63,6.56 289.63,-6.24"/>
    <junction id="high1" type="priority" x="-399.45" y="2.37" incLanes="e16_0 e16_1 e0_0 e0_1" intLanes=":high1_0_0 :high1_0_1 :high1_2_0 :high1_2_1" shape="-405.30,6.45 -392.50,6.40 -392.50,-6.40 -396.43,-6.04 -399.63,-4.97 -402.13,-3.19 -403.90,-0.69 -404.96,2.52">
        <request index="0" response="0000" foes="0000" cont="0"/>
        <request index="1" response="0000" foes="0000" cont="0"/>
        <request index="2" response="0000" foes="0000" cont="0"/>
        <request index="3" response="0000" foes="0000" cont="0"/>
    </junction>
    <junction id="high2" type="priority" x="-399.28" y="154.37" incLanes="-e15_0 -e15_1 -e15_2 -e15_3 -e16_0 -e16_1" intLanes=":high2_0_0 :high2_0_1 :high2_2_0 :high2_2_1 :high2_2_2 :high2_2_3" shape="-388.19,167.21 -388.05,140.86 -390.26,140.40 -391.03,139.85 -391.58,139.07 -391.92,138.08 -392.03,136.87 -404.83,136.92 -404.34,146.16 -402.93,153.72 -400.62,159.61 -397.39,163.82 -393.25,166.35">
        <request index="0" response="000000" foes="000000" cont="0"/>
        <request index="1" response="000000" foes="000000" cont="0"/>
        <request index="2" response="000000" foes="000000" cont="0"/>
        <request index="3" response="000000" foes="000000" cont="0"/>
        <request index="4" response="000000" foes="000000" cont="0"/>
        <request index="5" response="000000" foes="000000" cont="0"/>
    </junction>
    <junction id="high3" type="priority" x="26.97" y="152.76" incLanes="-e14_0 -e14_1 -e14_2 -e14_3 -e7_0 -e7_1 e15_0 e15_1 e15_2 e15_3" intLanes=":high3_0_0 :high3_0_1 :high3_0_2 :high3_0_3 :high3_15_0 :high3_5_0 :high3_5_1 :high3_7_0 :high3_7_1 :high3_9_0 :high3_10_0 :high3_16_0 :high3_12_0 :high3_12_1 :high3_12_2" shape="38.61,168.94 38.75,143.14 36.53,142.68 35.76,142.12 35.21,141.34 34.89,140.34 34.80,139.12 22.00,138.96 21.53,141.23 20.96,142.02 20.18,142.59 19.17,142.92 17.95,143.03 17.84,168.85">
        <request index="0"  response="000000000000000" foes="000000110000000" cont="0"/>
        <request index="1"  response="000000000000000" foes="000000110000000" cont="0"/>
        <request index="2"  response="000000000000000" foes="000000110000000" cont="0"/>
        <request index="3"  response="000000000000000" foes="000000110000000" cont="0"/>
        <request index="4"  response="111111000000000" foes="111111110000000" cont="1"/>
        <request index="5"  response="111010000000000" foes="111010000000000" cont="0"/>
        <request index="6"  response="111010000000000" foes="111010000000000" cont="0"/>
        <request index="7"  response="111010000011111" foes="111010000011111" cont="0"/>
        <request index="8"  response="111010000011111" foes="111010000011111" cont="0"/>
        <request index="9"  response="000000000000000" foes="000000000010000" cont="0"/>
        <request index="10" response="000000000000000" foes="000100111110000" cont="0"/>
        <request index="11" response="000010000000000" foes="000010000010000" cont="1"/>
        <request index="12" response="000000000000000" foes="000000111110000" cont="0"/>
        <request index="13" response="000000000000000" foes="000000111110000" cont="0"/>
        <request index="14" response="000000000000000" foes="000000111110000" cont="0"/>
    </junction>
    <junction id="high4" type="priority" x="190.03" y="150.09" incLanes="-e9_0 -e9_1 e14_0 e14_1 e14_2 e14_3" intLanes=":high4_0_0 :high4_0_1 :high4_0_2 :high4_0_3 :high4_4_0 :high4_4_1" shape="198.75,139.89 185.95,139.93 185.51,142.15 184.96,142.93 184.18,143.48 183.18,143.80 181.96,143.91 181.86,169.52 187.05,168.71 191.29,166.25 194.58,162.14 196.92,156.38 198.31,148.96">
        <request index="0" response="000000" foes="000000" cont="0"/>
        <request index="1" response="000000" foes="000000" cont="0"/>
        <request index="2" response="000000" foes="000000" cont="0"/>
        <request index="3" response="000000" foes="000000" cont="0"/>
        <request index="4" response="000000" foes="000000" cont="0"/>
        <request index="5" response="000000" foes="000000" cont="0"/>
    </junction>
    <junction id="mergein1" type="priority" x="-292.98" y="-2.39" incLanes="e2_0 e1_0 e1_1" intLanes=":mergein1_0_0 :mergein1_1_0 :mergein1_1_1" shape="-290.44,0.02 -290.44,-9.58 -291.74,-9.79 -292.63,-10.18 -293.18,-10.34 -293.94,-10.40 -293.94,0.02">
        <request index="0" response="000" foes="000" cont="0"/>
        <request index="1" response="000" foes="000" cont="0"/>
        <request index="2" response="000" foes="000" cont="0"/>
    </junction>
    <junction id="mergein2" type="priority" x="-191.58" y="0.04" incLanes="e3_0 e3_1 e3_2" intLanes=":mergein2_0_0 :mergein2_0_1" shape="-187.58,0.04 -187.58,-6.36 -190.61,-7.19 -192.55,-8.73 -193.79,-9.32 -195.58,-9.56 -195.58,0.04">
        <request index="0" response="00" foes="00" cont="0"/>
        <request index="1" response="00" foes="00" cont="0"/>
    </junction>
    <junction id="mergeout" type="priority" x="222.97" y="-1.36" incLanes="e10_0 e10_1" intLanes=":mergeout_0_0 :mergeout_1_0 :mergeout_1_1" shape="238.57,0.18 238.57,-6.22 238.41,-7.33 237.52,-10.40 233.66,-9.18 230.80,-8.14 228.43,-7.32 226.03,-6.71 223.08,-6.34 219.06,-6.21 219.06,0.19">
        <request index="0" response="000" foes="000" cont="0"/>
        <request index="1" response="000" foes="000" cont="0"/>
        <request index="2" response="000" foes="000" cont="0"/>
    </junction>
    <junction id="sigint" type="traffic_light" x="192.00" y="0.12" incLanes="e9_0 e9_1 e12_0 e12_1 -e8_0 -e8_1 -e5_0 -e5_1" intLanes=":sigint_0_0 :sigint_1_0 :sigint_1_1 :sigint_16_0 :sigint_4_0 :sigint_5_0 :sigint_5_1 :sigint_17_0 :sigint_8_0 :sigint_9_0 :sigint_9_1 :sigint_18_0 :sigint_12_0 :sigint_13_0 :sigint_13_1 :sigint_19_0" shape="185.50,10.57 198.30,10.53 198.76,8.31 199.33,7.53 200.13,6.97 201.17,6.64 202.43,6.53 202.44,-6.22 200.22,-6.66 199.45,-7.22 198.90,-8.00 198.58,-9.00 198.48,-10.22 185.68,-10.36 185.20,-8.07 184.61,-7.26 183.80,-6.69 182.76,-6.35 181.49,-6.23 181.49,6.53 183.71,6.98 184.49,7.54 185.05,8.33 185.39,9.34">
        <request index="0"  response="0000000001100000" foes="0000000001100000" cont="0"/>