<?xml version="1.0" encoding="UTF-8"?>

<!-- generated on 2025-07-30 20:02:22 by Eclipse SUMO netedit Version 1.23.1
-->

<routes xmlns:xsi="http://www.w3.org/2001/XMLSchema-instance" xsi:noNamespaceSchemaLocation="http://sumo.dlr.de/xsd/routes_file.xsd">
    <!-- VTypes -->
    <vType id="envcar" length="5.00" minGap="2.50" maxSpeed="13.90" accel="2.6" decel="4.5" sigma="0.5"/>
    <!-- Routes -->
    <route id="r_0" edges="e1 e3 e4 -e5 e10 e11"/>
    <route id="r_1" edges="e1 e3 e4 -e5 e10 e13"/>
    <route id="r_10" edges="e2 e3 e4 -e5 e10 e11"/>
    <route id="r_11" edges="e2 e3 e4 -e5 e10 e13"/>
    <route id="r_12" edges="e2 e3 e4 -e5 e8"/>
    <route id="r_13" edges="e2 e3 e4 -e7 -e15 e16"/>
    <route id="r_14" edges="e2 e3 e4 e6"/>
    <route id="r_15" edges="e2 e3 e4 -e5 -e9 -e14 -e15 e16"/>
    <route id="r_16" edges="-e6 e0 -e16 e15 e14 e9 e8"/>
    <route id="r_17" edges="-e6 e0 -e16 e15 e14 e9 e10 e11"/>
    <route id="r_18" edges="-e6 e0 -e16 e15 e14 e9 e10 e13"/>
    <route id="r_19" edges="-e6 e0 -e16 e15 e14 e9 e5 e6"/>
    <route id="r_2" edges="e1 e3 e4 -e5 e8"/>
    <route id="r_20" edges="-e6 e0 -e16 e15 e14 e9 e5 e0"/>
    <route id="r_21" edges="-e6 -e7 e14 e9 e10 e13"/>
    <route id="r_22" edges="-e6 -e7 e14 e9 e10 e11"/>
    <route id="r_23" edges="-e6 -e7 e14 e9 e8"/>
    <route id="r_24" edges="-e6 -e7 -e15 e16 e1 e3 e4 e6"/>
    <route id="r_25" edges="-e6 -e7 -e15 e16 e1 e3 e4 -e5 e8"/>
    <route id="r_26" edges="-e6 -e7 -e15 e16 e1 e3 e4 -e5 e10 e13"/>
    <route id="r_27" edges="-e6 -e7 -e15 e16 e1 e3 e4 -e5 e10 e11"/>
    <route id="r_28" edges="-e8 -e9 -e14 -e15 e16 e1 e3 e4 e6"/>
    <route id="r_29" edges="-e8 -e9 -e14 -e15 e16 e1 e3 e4 -e5 e8"/>
    <route id="r_3" edges="e1 e3 e4 -e5 -e9 -e14 -e15 e16 e1"/>
    <route id="r_30" edges="-e8 -e9 -e14 -e15 e16 e1 e3 e4 -e5 e10 e13"/>
    <route id="r_31" edges="-e8 -e9 -e14 -e15 e16 e1 e3 e4 -e5 e10 e11"/>
    <route id="r_32" edges="-e8 -e9 -e14 e7 e0"/>
    <route id="r_33" edges="-e8 -e9 -e14 e7 e6"/>
    <route id="r_34" edges="-e8 -e9 -e14 e7 -e5 e8"/>
    <route id="r_35" edges="-e8 -e9 -e14 e7 -e5"/>
    <route id="r_36" edges="-e8 -e9 -e14 e7 -e5"/>
    <route id="r_37" edges="-e8 e5 e0 -e16 e15 e14 e9 e8"/>
    <route id="r_38" edges="-e8 e5 -e7 e14 e9 e8"/>
    <route id="r_39" edges="-e9 -e14 -e15 e16 e1 e3 e4 -e5 e8"/>
    <route id="r_4" edges="e1 e3 e4 -e7 -e15 e16 e1"/>
    <route id="r_40" edges="e12 -e9 -e14 -e15 e16 e1 e3 e4 -e5 e10 e11"/>
    <route id="r_41" edges="e12 -e9 -e14 -e15 e16 e1 e3 e4 -e5 e10 e13"/>
    <route id="r_42" edges="e12 e5 e0 -e16 e15 e14 e9 e8"/>
    <route id="r_43" edges="e12 e5 -e7 e14 e9 e10 e13"/>
    <route id="r_5" edges="e1 e3 e4 -e5 e10 e11"/>
    <route id="r_6" edges="e1 e3 e4 -e5 e10 e11"/>
    <route id="r_7" edges="e1 e3 e4 -e5 e10 e11"/>
    <route id="r_8" edges="e1 e3 e4 -e5 e10 e11"/>
    <route id="r_9" edges="e1 e3 e4 -e5 e10 e11"/>
    <!-- Vehicles, persons and containers (sorted by depart) -->
    <flow id="f_0" type="envcar" begin="0.00" route="r_0" end="3600.00" period="2.00"/>
    <flow id="f_1" type="envcar" begin="0.00" route="r_1" end="3600.00" period="2.00"/>
    <flow id="f_10" type="envcar" begin="0.00" route="r_10" end="3600.00" period="2.00"/>
    <flow id="f_11" type="envcar" begin="0.00" route="r_11" end="3600.00" period="2.00"/>
    <flow id="f_12" type="envcar" begin="0.00" route="r_12" end="3600.00" period="2.00"/>
    <flow id="f_13" type="envcar" begin="0.00" route="r_13" end="3600.00" period="2.00"/>
    <flow id="f_14" type="envcar" begin="0.00" route="r_14" end="3600.00" period="2.00"/>
    <flow id="f_15" type="envcar" begin="0.00" route="r_15" end="3600.00" period="2.00"/>
    <flow id="f_16" type="envcar" begin="0.00" route="r_16" end="3600.00" period="2.00"/>
    <flow id="f_17" type="envcar" begin="0.00" route="r_17" end="3600.00" period="2.00"/>
    <flow id="f_18" type="envcar" begin="0.00" route="r_18" end="3600.00" period="2.00"/>
    <flow id="f_19" type="envcar" begin="0.00" route="r_19" end="3600.00" period="2.00"/>
    <flow id="f_2" type="envcar" begin="0.00" route="r_2" end="3600.00" period="2.00"/>
    <flow id="f_20" type="envcar" begin="0.00" route="r_20" end="3600.00" period="2.00"/>
    <flow id="f_21" type="envcar" begin="0.00" route="r_21" end="3600.00" period="2.00"/>
    <flow id="f_22" type="envcar" begin="0.00" route="r_22" end="3600.00" period="2.00"/>
    <flow id="f_23" type="envcar" begin="0.00" route="r_23" end="3600.00" period="2.00"/>
    <flow id="f_24" type="envcar" begin="0.00" route="r_24" end="3600.00" period="2.00"/>
    <flow id="f_25" type="envcar" begin="0.00" route="r_25" end="3600.00" period="2.00"/>
    <flow id="f_26" type="envcar" begin="0.00" route="r_26" end="3600.00" period="2.00"/>
    <flow id="f_27" type="envcar" begin="0.00" route="r_27" end="3600.00" period="2.00"/>
    <flow id="f_28" type="envcar" begin="0.00" route="r_28" end="3600.00" period="2.00"/>
    <flow id="f_29" type="envcar" begin="0.00" route="r_29" end="3600.00" period="2.00"/>
    <flow id="f_3" type="envcar" begin="0.00" route="r_3" end="3600.00" period="2.00"/>
    <flow id="f_30" type="envcar" begin="0.00" route="r_30" end="3600.00" period="2.00"/>
    <flow id="f_31" type="envcar" begin="0.00" route="r_31" end="3600.00" period="2.00"/>
    <flow id="f_32" type="envcar" begin="0.00" route="r_32" end="3600.00" period="2.00"/>
    <flow id="f_33" type="envcar" begin="0.00" route="r_33" end="3600.00" period="2.00"/>
    <flow id="f_34" type="envcar" begin="0.00" route="r_34" end="3600.00" period="2.00"/>
    <flow id="f_35" type="envcar" begin="0.00" route="r_35" end="3600.00" period="2.00"/>
    <flow id="f_36" type="envcar" begin="0.00" route="r_36" end="3600.00" period="2.00"/>
    <flow id="f_37" type="envcar" begin="0.00" route="r_37" end="3600.00" period="2.00"/>
    <flow id="f_38" type="envcar" begin="0.00" route="r_38" end="3600.00" period="2.00"/>
    <flow id="f_4" type="envcar" begin="0.00" route="r_4" end="3600.00" period="2.00"/>
    <flow id="f_40" type="envcar" begin="0.00" route="r_40" end="3600.00" period="2.00"/>
    <flow id="f_41" type="envcar" begin="0.00" route="r_41" end="3600.00" period="2.00"/>
    <flow id="f_42" type="envcar" begin="0.00" route="r_42" end="3600.00" period="2.00"/>
    <flow id="f_43" type="envcar" begin="0.00" route="r_43" end="3600.00" period="2.00"/>
    <flow id="f_5" type="envcar" begin="0.00" route="r_5" end="3600.00" period="2.00"/>
    <flow id="f_6" type="envcar" begin="0.00" route="r_6" end="3600.00" period="2.00"/>
    <flow id="f_7" type="envcar" begin="0.00" route="r_7" end="3600.00" period="2.00"/>
    <flow id="f_8" type="envcar" begin="0.00" route="r_8" end="3600.00" period="2.00"/>
    <flow id="f_9" type="envcar" begin="0.00" route="r_9" end="3600.00" period="2.00"/>
</routes>
